<?xml version="1.0" encoding="UTF-8"?>

<!-- generated on 11/12/18 09:42:51 by Eclipse SUMO polyconvert Version 1.0.1
<configuration xmlns:xsi="http://www.w3.org/2001/XMLSchema-instance" xsi:noNamespaceSchemaLocation="http://sumo.dlr.de/xsd/polyconvertConfiguration.xsd">

    <input>
        <net-file value="C:\Users\<user>\Sumo\2018-11-12-09-42-36\osm.net.xml"/>
        <osm-files value="C:\Users\<user>\Sumo\2018-11-12-09-42-36\osm_bbox.osm.xml"/>
        <osm.keep-full-type value="true"/>
        <type-file value="C:\Program%20Files%20(x86)\Eclipse\Sumo\data\typemap\osmPolyconvert.typ.xml"/>
    </input>

    <output>
        <output-file value="C:\Users\<user>\Sumo\2018-11-12-09-42-36\osm.poly.xml"/>
    </output>

    <processing>
        <poi-layer-offset value="5"/>
    </processing>

    <report>
        <verbose value="true"/>
    </report>

</configuration>
-->

<additional xmlns:xsi="http://www.w3.org/2001/XMLSchema-instance" xsi:noNamespaceSchemaLocation="http://sumo.dlr.de/xsd/additional_file.xsd">
    <location netOffset="-291727.60,-4702987.13" convBoundary="0.00,-1604.32,15740.24,8113.82" origBoundary="-83.535679,42.438941,-83.342949,42.526110" projParameter="+proj=utm +zone=17 +ellps=WGS84 +datum=WGS84 +units=m +no_defs"/>

    <poly id="241966308" type="building.yes" color="255,230,230" fill="1" layer="-1.00" shape="9102.177670,2068.318178 9147.275811,2068.696905 9146.969208,2066.316206 9171.915610,2066.326072 9172.822402,2047.662413 9111.163005,2047.034239 9111.639985,2055.378157 9102.546406,2055.882462 9102.177670,2068.318178"/>
    <poly id="241966309" type="building.yes" color="255,230,230" fill="1" layer="-1.00" shape="9102.528529,2122.354361 9194.971843,2122.881191 9195.311290,2098.754661 9169.363624,2098.539928 9170.045743,2078.060029 9146.103283,2078.054837 9144.836523,2083.825719 9102.784014,2083.493361 9102.528529,2122.354361"/>
    <poly id="241966310" type="building.yes" color="255,230,230" fill="1" layer="-1.00" shape="9118.883087,2182.768279 9192.995743,2183.040788 9193.158821,2163.687090 9119.515786,2163.156648 9118.883087,2182.768279"/>
    <poly id="241966311" type="building.yes" color="255,230,230" fill="1" layer="-1.00" shape="9114.288643,2231.888992 9174.730986,2232.307351 9174.997688,2216.295928 9184.848733,2216.970357 9184.685083,2211.240334 9189.470794,2210.859153 9188.789433,2203.710242 9111.541026,2202.816101 9114.288643,2231.888992"/>
    <poly id="241966312" type="building.yes" color="255,230,230" fill="1" layer="-1.00" shape="9111.534706,2286.680719 9129.765303,2286.637764 9145.035117,2275.687928 9145.825974,2252.971043 9114.246082,2252.572916 9110.859040,2254.681277 9111.534706,2286.680719"/>
    <poly id="241966313" type="building.yes" color="255,230,230" fill="1" layer="-1.00" shape="9007.671670,2370.979576 9008.820248,2323.090836 8990.534973,2322.657784 8989.386837,2370.557636 9007.671670,2370.979576"/>
    <poly id="241966314" type="building.yes" color="255,230,230" fill="1" layer="-1.00" shape="8887.083647,2392.810058 8936.088038,2393.197809 8936.169260,2382.804101 8957.548454,2382.970713 8957.826414,2349.532519 8936.521104,2349.363788 8936.658769,2332.600271 8887.579968,2332.214617 8887.083647,2392.810058"/>
    <poly id="241966315" type="amenity.parking" color="184,184,179" fill="1" layer="-1.00" shape="8797.931931,2399.383950 8842.953654,2398.884779 8842.963833,2219.796898 8797.129520,2219.541285 8797.931931,2399.383950"/>
    <poly id="241966315#1" type="building.yes" color="255,230,230" fill="1" layer="-1.00" shape="8797.931931,2399.383950 8842.953654,2398.884779 8842.963833,2219.796898 8797.129520,2219.541285 8797.931931,2399.383950"/>
    <poly id="241966316" type="building.yes" color="255,230,230" fill="1" layer="-1.00" shape="8760.063820,2208.010115 8727.236404,2206.582503 8724.658822,2378.653458 8757.846011,2378.881533 8760.063820,2208.010115"/>
    <poly id="241966317" type="building.yes" color="255,230,230" fill="1" layer="-1.00" shape="8661.691695,2290.323360 8663.271859,2235.175863 8683.438121,2235.776494 8684.927521,2205.037526 8650.555693,2204.843670 8612.668394,2233.868854 8597.279187,2234.309652 8596.860732,2288.634839 8661.691695,2290.323360"/>
    <poly id="241966318" type="building.yes" color="255,230,230" fill="1" layer="-1.00" shape="8598.311449,2191.358546 8634.650353,2191.573611 8634.691581,2184.681870 8642.969643,2184.722647 8643.067861,2168.615930 8634.378103,2168.564714 8634.415564,2161.828675 8598.487864,2161.612936 8598.311449,2191.358546"/>
    <poly id="241966319" type="building.yes" color="255,230,230" fill="1" layer="-1.00" shape="8656.585789,2153.102938 8656.629278,2128.762463 8652.967819,2128.756172 8652.982855,2120.086974 8630.454734,2120.054172 8630.439661,2126.422814 8623.133180,2126.409791 8623.146434,2120.552435 8600.610087,2120.519964 8600.599518,2125.321433 8593.087195,2125.303222 8593.098614,2119.957153 8550.214240,2119.885351 8550.204075,2124.986883 8542.115969,2124.974110 8542.128785,2118.816689 8528.700873,2118.801332 8528.640928,2152.889125 8656.585789,2153.102938"/>
    <poly id="241966321" type="building.yes" color="255,230,230" fill="1" layer="-1.00" shape="8593.528514,2089.581912 8687.964769,2090.422849 8689.725275,2041.560641 8593.326782,2041.175940 8593.528514,2089.581912"/>
    <poly id="241966333" type="building.yes" color="255,230,230" fill="1" layer="-1.00" shape="8811.039731,2093.224022 8812.467607,2042.771031 8805.731989,2042.007967 8805.235370,2049.668462 8747.469602,2050.843661 8747.096029,2079.761329 8762.218492,2080.050913 8762.839542,2093.414145 8811.039731,2093.224022"/>
    <poly id="241966334" type="building.yes" color="255,230,230" fill="1" layer="-1.00" shape="8802.161413,2193.835577 8829.015887,2193.545088 8829.748927,2143.823259 8815.132296,2144.241461 8814.415705,2127.535714 8777.498655,2128.114204 8776.872423,2131.243987 8759.364800,2131.267145 8757.928268,2156.392092 8777.596673,2156.551592 8777.862984,2165.857328 8802.317097,2165.635437 8802.161413,2193.835577"/>
    <poly id="241966335" type="building.yes" color="255,230,230" fill="1" layer="-1.00" shape="8896.654657,2188.098256 8958.318097,2189.480082 8959.075733,2160.729312 8897.028557,2159.747421 8896.654657,2188.098256"/>
    <poly id="241966336" type="building.yes" color="255,230,230" fill="1" layer="-1.00" shape="8965.120663,2137.339807 8965.694237,2110.494760 8957.084206,2111.218824 8957.274312,2101.177651 8951.036222,2101.122622 8950.886039,2095.870101 8942.732163,2095.858743 8943.080288,2082.712308 8904.942140,2082.602629 8904.499229,2100.775209 8897.069109,2100.754320 8895.644924,2134.958810 8904.760596,2134.942603 8905.080938,2137.800797 8965.120663,2137.339807"/>
    <poly id="241966337" type="building.yes" color="255,230,230" fill="1" layer="-1.00" shape="9047.219511,2152.463851 9047.416137,2146.101158 9053.690871,2146.288588 9054.348229,2125.242561 9012.243653,2123.945354 9011.785205,2138.417470 9020.514199,2138.690312 9020.110585,2151.627160 9047.219511,2152.463851"/>
    <poly id="241966338" type="building.yes" color="255,230,230" fill="1" layer="-1.00" shape="9054.487517,2204.968727 9056.239940,2182.224338 9007.563343,2182.415311 9006.984325,2204.181510 9054.487517,2204.968727"/>
    <poly id="241966339" type="building.yes" color="255,230,230" fill="1" layer="-1.00" shape="8896.311881,2241.987671 8905.460163,2243.404202 8905.999812,2245.300338 8954.226202,2246.066174 8954.879231,2210.205574 8895.887301,2210.458903 8896.311881,2241.987671"/>
    <poly id="241966340" type="building.yes" color="255,230,230" fill="1" layer="-1.00" shape="8905.933545,2293.324883 8915.040789,2293.308918 8914.890998,2296.413947 8951.350965,2296.571594 8951.922409,2266.203528 8905.196073,2267.539774 8905.933545,2293.324883"/>
    <poly id="242294625" type="amenity.fuel" color="237,199,199" fill="1" layer="-1.00" shape="8157.784159,2101.376711 8157.983974,2093.146724 8164.233211,2093.300751 8164.509156,2081.990042 8142.591892,2081.463375 8142.107646,2100.993204 8157.784159,2101.376711"/>
    <poly id="242294625#1" type="building.retail" color="255,230,230" fill="1" layer="-1.00" shape="8157.784159,2101.376711 8157.983974,2093.146724 8164.233211,2093.300751 8164.509156,2081.990042 8142.591892,2081.463375 8142.107646,2100.993204 8157.784159,2101.376711"/>
    <poly id="242294627" type="amenity.fast_food" color="237,199,199" fill="1" layer="-1.00" shape="8135.166756,2128.332505 8134.870007,2138.343495 8150.477029,2138.028802 8152.119018,2136.759141 8159.836630,2137.048830 8160.651330,2127.022975 8141.482028,2127.062040 8140.218198,2128.320847 8135.166756,2128.332505"/>
    <poly id="242294627#1" type="building.commercial" color="255,230,230" fill="1" layer="-1.00" shape="8135.166756,2128.332505 8134.870007,2138.343495 8150.477029,2138.028802 8152.119018,2136.759141 8159.836630,2137.048830 8160.651330,2127.022975 8141.482028,2127.062040 8140.218198,2128.320847 8135.166756,2128.332505"/>
    <poly id="242294628" type="building.commercial" color="255,230,230" fill="1" layer="-1.00" shape="8152.872501,2194.818514 8167.309626,2195.026446 8167.132616,2207.490157 8180.524080,2207.672563 8180.593745,2202.647102 8184.182470,2202.699686 8184.496567,2181.252050 8191.146949,2181.339012 8191.414829,2162.293297 8153.001345,2161.762211 8152.979320,2163.574402 8146.254612,2163.478495 8146.161534,2169.693812 8153.256492,2169.790203 8153.182835,2175.249220 8139.330301,2175.057873 8139.244745,2180.961787 8153.072604,2181.153842 8152.872501,2194.818514"/>
    <poly id="242294628#1" type="shop.car" color="237,199,255" fill="1" layer="-1.00" shape="8152.872501,2194.818514 8167.309626,2195.026446 8167.132616,2207.490157 8180.524080,2207.672563 8180.593745,2202.647102 8184.182470,2202.699686 8184.496567,2181.252050 8191.146949,2181.339012 8191.414829,2162.293297 8153.001345,2161.762211 8152.979320,2163.574402 8146.254612,2163.478495 8146.161534,2169.693812 8153.256492,2169.790203 8153.182835,2175.249220 8139.330301,2175.057873 8139.244745,2180.961787 8153.072604,2181.153842 8152.872501,2194.818514"/>
    <poly id="242294629" type="building.commercial" color="255,230,230" fill="1" layer="-1.00" shape="8266.256753,2269.094600 8244.448311,2268.897943 8244.537319,2259.670895 8207.215902,2259.330485 8207.126624,2268.546430 8189.836116,2268.386984 8189.607002,2292.221661 8192.199384,2292.247276 8191.223037,2394.956201 8265.049947,2395.638143 8265.804514,2316.130257 8272.807931,2316.196046 8273.012208,2294.640438 8266.008769,2294.574649 8266.256753,2269.094600"/>
    <poly id="242294629#1" type="shop.motorcycle" color="237,199,255" fill="1" layer="-1.00" shape="8266.256753,2269.094600 8244.448311,2268.897943 8244.537319,2259.670895 8207.215902,2259.330485 8207.126624,2268.546430 8189.836116,2268.386984 8189.607002,2292.221661 8192.199384,2292.247276 8191.223037,2394.956201 8265.049947,2395.638143 8265.804514,2316.130257 8272.807931,2316.196046 8273.012208,2294.640438 8266.008769,2294.574649 8266.256753,2269.094600"/>
    <poly id="242294630" type="building.commercial" color="255,230,230" fill="1" layer="-1.00" shape="8159.153018,2494.401182 8209.002623,2495.292992 8209.483804,2469.061596 8191.325224,2468.738158 8191.560341,2456.006043 8176.932775,2455.736879 8176.687368,2468.969415 8159.590497,2468.660036 8159.429489,2477.666885 8156.960162,2477.626640 8156.896180,2481.129343 8159.398705,2481.179749 8159.153018,2494.401182"/>
    <poly id="242294630#1" type="shop.car" color="237,199,255" fill="1" layer="-1.00" shape="8159.153018,2494.401182 8209.002623,2495.292992 8209.483804,2469.061596 8191.325224,2468.738158 8191.560341,2456.006043 8176.932775,2455.736879 8176.687368,2468.969415 8159.590497,2468.660036 8159.429489,2477.666885 8156.960162,2477.626640 8156.896180,2481.129343 8159.398705,2481.179749 8159.153018,2494.401182"/>
    <poly id="242294631" type="building.commercial" color="255,230,230" fill="1" layer="-1.00" shape="8158.831545,2584.932814 8175.534126,2584.986760 8175.203676,2598.121716 8194.463128,2598.402376 8194.695926,2585.303568 8214.390130,2585.538464 8214.696374,2565.824806 8216.252623,2564.724322 8217.178574,2562.875073 8217.653495,2561.650031 8217.601862,2559.851069 8216.977738,2558.457522 8215.324793,2557.049050 8215.244602,2547.949104 8160.011778,2546.378283 8159.502121,2571.610268 8157.933697,2571.999828 8156.395562,2573.444336 8155.919834,2575.213984 8156.693806,2577.814635 8157.781399,2579.017048 8159.217047,2580.020533 8158.831545,2584.932814"/>
    <poly id="242294631#1" type="shop.car" color="237,199,255" fill="1" layer="-1.00" shape="8158.831545,2584.932814 8175.534126,2584.986760 8175.203676,2598.121716 8194.463128,2598.402376 8194.695926,2585.303568 8214.390130,2585.538464 8214.696374,2565.824806 8216.252623,2564.724322 8217.178574,2562.875073 8217.653495,2561.650031 8217.601862,2559.851069 8216.977738,2558.457522 8215.324793,2557.049050 8215.244602,2547.949104 8160.011778,2546.378283 8159.502121,2571.610268 8157.933697,2571.999828 8156.395562,2573.444336 8155.919834,2575.213984 8156.693806,2577.814635 8157.781399,2579.017048 8159.217047,2580.020533 8158.831545,2584.932814"/>
    <poly id="242294632" type="building.yes" color="255,230,230" fill="1" layer="-1.00" shape="8188.975673,3766.538897 8189.076831,3755.166490 8198.497417,3755.240498 8198.781147,3721.579516 8134.391057,3721.050407 8134.053753,3760.281008 8137.254432,3760.311323 8137.207245,3766.114129 8188.975673,3766.538897"/>
    <poly id="242294633" type="building.yes" color="255,230,230" fill="1" layer="-1.00" shape="8133.625609,3844.169833 8207.888094,3845.082205 8208.515631,3795.607407 8134.252940,3794.706116 8133.625609,3844.169833"/>
    <poly id="242294634" type="building.yes" color="255,230,230" fill="1" layer="-1.00" shape="8229.517826,3837.792815 8315.376209,3838.629024 8315.749494,3801.764711 8229.890340,3800.917378 8229.517826,3837.792815"/>
    <poly id="242294635" type="building.yes" color="255,230,230" fill="1" layer="-1.00" shape="8332.923363,3908.920813 8370.019754,3909.467849 8371.307582,3823.909689 8334.210737,3823.362631 8332.923363,3908.920813"/>
    <poly id="242294636" type="building.yes" color="255,230,230" fill="1" layer="-1.00" shape="8238.023867,3944.108490 8275.390941,3944.347165 8275.514109,3925.427808 8273.037715,3925.409985 8273.121133,3913.415716 8275.737249,3913.429528 8275.996927,3875.768257 8269.308343,3875.726868 8269.290229,3877.961277 8263.498452,3877.927490 8263.507389,3875.660003 8238.497029,3875.500028 8238.023867,3944.108490"/>
    <poly id="242294637" type="building.yes" color="255,230,230" fill="1" layer="-1.00" shape="8132.848212,3924.201070 8207.545442,3925.100896 8208.159844,3875.170798 8133.462401,3874.282052 8132.848212,3924.201070"/>
    <poly id="242294638" type="building.yes" color="255,230,230" fill="1" layer="-1.00" shape="8125.758864,4007.558879 8175.703839,4008.135846 8175.728224,4005.834571 8187.329925,4005.968152 8187.299869,4008.358501 8200.645832,4008.508694 8201.091141,3970.453071 8126.206318,3969.592075 8125.758864,4007.558879"/>
    <poly id="242294639" type="building.yes" color="255,230,230" fill="1" layer="-1.00" shape="8220.419169,4008.774425 8233.439251,4009.034062 8233.487602,4006.420911 8244.894597,4006.649090 8244.850245,4008.828684 8276.848669,4009.454878 8277.622114,3971.067564 8221.196308,3969.953537 8220.419169,4008.774425"/>
    <poly id="242294640" type="building.yes" color="255,230,230" fill="1" layer="-1.00" shape="8338.663704,4016.082750 8377.113305,4016.224196 8377.363149,3953.834879 8339.398428,3953.690610 8339.251399,3990.415065 8341.118949,3990.428154 8341.069006,4002.732645 8338.716559,4002.733471 8338.663704,4016.082750"/>
    <poly id="242294641" type="building.yes" color="255,230,230" fill="1" layer="-1.00" shape="8137.517495,4251.660116 8181.116311,4251.852523 8181.080270,4259.188729 8211.944888,4259.324767 8212.092991,4227.534786 8202.879779,4227.499300 8202.902229,4222.552973 8182.871607,4222.472542 8182.893405,4217.504005 8143.070134,4217.325363 8143.058831,4221.226665 8137.654235,4221.204106 8137.517495,4251.660116"/>
    <poly id="242294642" type="building.yes" color="255,230,230" fill="1" layer="-1.00" shape="8329.032209,4145.068955 8312.857376,4101.944564 8312.882644,4096.520266 8250.988641,4095.140686 8250.091890,4131.230987 8268.551185,4131.579016 8268.554257,4137.702678 8281.209289,4137.861731 8281.203704,4144.830295 8329.032209,4145.068955"/>
    <poly id="242294643" type="building.yes" color="255,230,230" fill="1" layer="-1.00" shape="8373.078101,4253.409993 8373.701086,4217.505415 8342.496123,4216.978319 8341.881517,4252.882669 8373.078101,4253.409993"/>
    <poly id="242294644" type="building.yes" color="255,230,230" fill="1" layer="-1.00" shape="8267.926098,4252.482682 8322.761721,4253.009093 8323.483156,4210.800100 8316.283830,4211.006735 8315.650287,4213.292151 8310.246650,4213.302772 8309.498138,4213.302029 8309.223089,4215.754978 8303.243209,4215.748803 8302.968482,4218.212857 8297.341995,4218.196543 8297.412442,4220.650689 8294.085654,4221.090717 8286.112486,4224.998294 8254.846066,4225.195757 8254.884523,4238.853620 8267.892765,4239.002496 8267.926098,4252.482682"/>
    <poly id="243107787" type="natural.water" color="181,209,209" fill="1" layer="-4.00" shape="3969.723861,2403.244673 3975.736880,2361.645513 3974.563268,2345.464174 3944.430561,2336.122235 3919.746139,2354.617583 3922.513371,2384.178259 3946.173010,2395.565919 3960.319867,2400.730620 3969.723861,2403.244673"/>
    <poly id="251106526" type="building.yes" color="255,230,230" fill="1" layer="-1.00" shape="6167.025904,2931.769344 6295.041695,2934.782162 6296.560299,2871.076839 6256.426610,2870.139477 6256.587763,2863.210747 6209.735794,2862.101624 6209.566468,2869.030595 6168.543667,2868.075058 6167.025904,2931.769344"/>
    <poly id="251106526#1" type="leisure.sports_centre" color="207,245,201" fill="1" layer="-2.00" shape="6167.025904,2931.769344 6295.041695,2934.782162 6296.560299,2871.076839 6256.426610,2870.139477 6256.587763,2863.210747 6209.735794,2862.101624 6209.566468,2869.030595 6168.543667,2868.075058 6167.025904,2931.769344"/>
    <poly id="251106527" type="building.commercial" color="255,230,230" fill="1" layer="-1.00" shape="6339.459950,2889.394464 6382.033267,2889.639237 6382.038804,2888.694382 6385.453341,2888.706611 6385.465025,2887.405929 6391.060127,2887.432794 6391.200093,2863.011181 6385.604971,2862.984315 6385.610222,2861.461539 6382.203571,2861.437967 6382.209608,2860.226361 6339.627892,2859.981819 6339.588028,2866.840343 6335.474129,2866.826172 6335.387034,2882.844043 6339.493025,2882.869557 6339.459950,2889.394464"/>
    <poly id="251106529" type="building.commercial" color="255,230,230" fill="1" layer="-1.00" shape="6228.012226,2708.997946 6197.114640,2719.340642 6201.965828,2733.714958 6232.855134,2723.372520 6228.012226,2708.997946"/>
    <poly id="251106531" type="building.commercial" color="255,230,230" fill="1" layer="-1.00" shape="6349.589836,2702.062646 6390.051411,2689.009640 6380.106978,2658.411764 6339.653456,2671.464582 6349.589836,2702.062646"/>
    <poly id="251106533" type="building.commercial" color="255,230,230" fill="1" layer="-1.00" shape="6290.310549,2688.065007 6246.557393,2702.792206 6251.531938,2717.451940 6295.284685,2702.713665 6290.310549,2688.065007"/>
    <poly id="251106535" type="building.commercial" color="255,230,230" fill="1" layer="-1.00" shape="6336.209979,2937.367966 6390.798201,2937.464705 6390.816305,2928.717426 6393.457177,2928.718726 6393.505824,2905.689012 6351.505262,2905.616521 6347.886016,2914.723762 6336.260834,2914.704940 6336.209979,2937.367966"/>
    <poly id="251106537" type="building.commercial" color="255,230,230" fill="1" layer="-1.00" shape="6344.044966,2839.792980 6389.651801,2839.949929 6389.769903,2809.660736 6392.197096,2809.668228 6392.259964,2794.228999 6370.299771,2794.153827 6370.271171,2803.390429 6344.188524,2803.290282 6344.044966,2839.792980"/>
    <poly id="261631414" type="building.yes" color="255,230,230" fill="1" layer="-1.00" shape="8116.280083,4196.978617 8192.109266,4198.156762 8192.400091,4179.643780 8168.091845,4179.263910 8168.281954,4167.555519 8189.051835,4167.881420 8189.490222,4140.473087 8169.189353,4140.155936 8169.221386,4138.121174 8181.589421,4138.310517 8182.066699,4108.533808 8130.602577,4107.733749 8130.684914,4102.296688 8112.712959,4102.023928 8112.532668,4113.498651 8115.034293,4113.537916 8114.888098,4122.477690 8100.454305,4122.247792 8099.956304,4153.581072 8116.965609,4153.848107 8116.280083,4196.978617"/>
    <poly id="261631414#1" type="shop.garden_centre" color="237,199,255" fill="1" layer="-1.00" shape="8116.280083,4196.978617 8192.109266,4198.156762 8192.400091,4179.643780 8168.091845,4179.263910 8168.281954,4167.555519 8189.051835,4167.881420 8189.490222,4140.473087 8169.189353,4140.155936 8169.221386,4138.121174 8181.589421,4138.310517 8182.066699,4108.533808 8130.602577,4107.733749 8130.684914,4102.296688 8112.712959,4102.023928 8112.532668,4113.498651 8115.034293,4113.537916 8114.888098,4122.477690 8100.454305,4122.247792 8099.956304,4153.581072 8116.965609,4153.848107 8116.280083,4196.978617"/>
    <poly id="261631415" type="building.yes" color="255,230,230" fill="1" layer="-1.00" shape="8488.090756,4147.318556 8487.697311,4184.939148 8499.997880,4185.075415 8499.808562,4203.140868 8523.816631,4203.386013 8523.721345,4211.824164 8549.539655,4212.095287 8549.631211,4203.812839 8554.551231,4203.860724 8554.752753,4184.494610 8549.832720,4184.446725 8549.916060,4176.164513 8555.634244,4176.222859 8555.835199,4157.123495 8550.124900,4157.053808 8550.217560,4147.948904 8543.874113,4147.886259 8543.983285,4137.636154 8525.001904,4137.435735 8524.951441,4142.560670 8522.968558,4142.539727 8522.990824,4140.160723 8515.339036,4140.080047 8515.310783,4142.537020 8513.229279,4142.518907 8513.285723,4137.316003 8494.057780,4137.122737 8493.948681,4147.372846 8488.090756,4147.318556"/>
    <poly id="261631417" type="building.yes" color="255,230,230" fill="1" layer="-1.00" shape="8441.615080,4198.252700 8443.596535,4097.859882 8365.313782,4096.338131 8395.933653,4174.501421 8395.443617,4199.277186 8418.816104,4199.729142 8418.859931,4197.816299 8441.615080,4198.252700"/>
    <poly id="261631421" type="building.commercial" color="255,230,230" fill="1" layer="-1.00" shape="9063.602010,4173.559642 9063.856728,4153.703104 9050.658779,4153.535934 9050.401914,4173.603699 9048.473037,4175.470410 9040.796358,4175.378759 9040.639606,4187.441723 9073.576630,4187.855735 9073.727443,4175.870742 9065.909782,4175.738640 9062.747693,4179.063178 9061.829808,4179.467294 9060.554646,4179.170344 9060.085410,4178.005699 9060.479742,4176.838587 9063.602010,4173.559642"/>
    <poly id="261631422" type="natural.water" color="181,209,209" fill="1" layer="-4.00" shape="8677.613544,4097.264038 8636.216562,4100.450667 8630.520916,4101.180689 8626.222889,4101.026011 8622.762985,4099.980436 8622.105902,4097.143008 8619.723450,4093.799333 8617.883253,4089.573239 8619.725376,4084.108003 8624.780390,4080.540074 8660.753352,4078.086711 8670.508352,4078.940829 8677.780977,4083.011296 8681.083668,4088.618076 8681.246875,4094.314801 8677.613544,4097.264038"/>
    <poly id="261631423" type="building.commercial" color="255,230,230" fill="1" layer="-1.00" shape="9102.660552,4176.343813 9099.498129,4179.657229 9098.580243,4180.061340 9097.313618,4179.775253 9096.844071,4178.599501 9097.238410,4177.432391 9100.360694,4174.153464 9100.712586,4154.527545 9087.464698,4154.339506 9087.166916,4174.130587 9085.104985,4176.234482 9077.584141,4176.127222 9077.407080,4188.057395 9133.015946,4188.879274 9133.033513,4187.767392 9124.352304,4187.637683 9122.203562,4185.554145 9122.334282,4176.603800 9102.660552,4176.343813"/>
    <poly id="261631424" type="natural.water" color="181,209,209" fill="1" layer="-4.00" shape="8856.331525,4266.488681 8840.826872,4267.910546 8829.425565,4268.437000 8817.691460,4271.129084 8804.686437,4270.512315 8797.253651,4265.434958 8794.445277,4256.690991 8797.492836,4246.212292 8809.131592,4240.188757 8831.704446,4231.107087 8845.775042,4227.570177 8854.484931,4229.276879 8868.842416,4228.865902 8873.852353,4232.056649 8872.853899,4238.553474 8865.490217,4242.498495 8860.721546,4247.736242 8859.328627,4254.244361 8859.394905,4263.455826 8856.331525,4266.488681"/>
    <poly id="261631425" type="natural.water" color="181,209,209" fill="1" layer="-4.00" shape="8256.894310,4213.456255 8256.680900,4199.147698 8260.660600,4196.810660 8268.116416,4195.796404 8278.230822,4195.706083 8284.892710,4195.114737 8287.685102,4193.823163 8313.785132,4193.874169 8320.565976,4197.713881 8324.406462,4197.403603 8325.480753,4199.584431 8323.476551,4200.253218 8312.973603,4208.012090 8310.246650,4213.302772 8309.498138,4213.302029 8309.223089,4215.754978 8303.243209,4215.748803 8302.968482,4218.212857 8297.341995,4218.196543 8295.634839,4217.178615 8284.926260,4217.486020 8270.336719,4216.693447 8261.829891,4216.337527 8258.574303,4215.819734 8256.894310,4213.456255"/>
    <poly id="261635031" type="building.yes" color="255,230,230" fill="1" layer="-1.00" shape="9280.781351,3610.063524 9280.808732,3615.630741 9283.301014,3615.626248 9283.305559,3616.937543 9291.702622,3616.886674 9291.696888,3616.397832 9295.118241,3616.377924 9295.086749,3610.666346 9290.777098,3610.689393 9290.774192,3610.011536 9290.765868,3608.855941 9286.143574,3608.876806 9286.152215,3610.043505 9280.781351,3610.063524"/>
    <poly id="261635034" type="building.yes" color="255,230,230" fill="1" layer="-1.00" shape="8584.047190,4016.780382 8626.432892,4017.366075 8626.744569,3995.807399 8633.204165,3995.900140 8632.892468,4017.458816 8658.796198,4017.816851 8659.536978,3965.871760 8655.344643,3961.657479 8627.276643,3961.272552 8627.448259,3949.464732 8608.722678,3940.699062 8605.608859,3948.001185 8585.028727,3947.713023 8584.047190,4016.780382"/>
    <poly id="261635035" type="building.yes" color="255,230,230" fill="1" layer="-1.00" shape="8481.095116,3906.526243 8480.179541,3997.363834 8484.431153,4001.920846 8484.339893,4011.359129 8490.252220,4017.035475 8503.548175,4017.165451 8507.210626,4022.117240 8535.299891,4022.389922 8539.850594,4018.158445 8552.537725,4018.283741 8557.765002,4012.977065 8557.851382,4003.939027 8552.261483,3998.031107 8522.798019,3997.742181 8514.226283,3988.819017 8515.053486,3907.219606 8507.544467,3898.643845 8489.254080,3898.468125 8481.095116,3906.526243"/>
    <poly id="261635036" type="building.yes" color="255,230,230" fill="1" layer="-1.00" shape="8715.607236,4027.525459 8727.679764,4030.891689 8749.973659,4030.142045 8750.876838,4026.926509 8766.125055,4031.179874 8788.795509,4030.941921 8792.826252,4016.589694 8795.189225,4017.244436 8806.827296,3975.845633 8794.887175,3972.508814 8794.140344,3975.153060 8758.627188,3965.245066 8758.029796,3967.362688 8734.373905,3960.771717 8727.744900,3984.345084 8725.215945,3983.639549 8715.078583,4019.694234 8717.607527,4020.399764 8715.607236,4027.525459"/>
    <poly id="261635037" type="building.yes" color="255,230,230" fill="1" layer="-1.00" shape="9420.400267,3954.282815 9418.572229,3958.247036 9414.555048,3956.405674 9412.905267,3959.986941 9408.904840,3958.156218 9407.363466,3961.501003 9405.296711,3960.559757 9412.771928,3944.364793 9407.571202,3941.979300 9400.112432,3958.173801 9393.745249,3955.265927 9375.674342,3994.457717 9389.284286,4000.692990 9387.766638,4004.003762 9391.767046,4005.834473 9389.992766,4009.663804 9394.018143,4011.504917 9392.251766,4015.322908 9442.990148,4038.547244 9444.826393,4034.582794 9448.218255,4036.130831 9472.781174,3982.884021 9469.380758,3981.325101 9471.138968,3977.507366 9420.400267,3954.282815"/>
    <poly id="261635038" type="building.yes" color="255,230,230" fill="1" layer="-1.00" shape="8851.388740,3989.506951 8842.740763,4023.018168 8844.144710,4029.824095 8855.861170,4032.822865 8879.130061,4033.090424 8880.055365,4029.496406 8892.534273,4032.695691 8916.517581,4033.209661 8917.376881,4029.895383 8931.032340,4033.394484 8953.970243,4033.593966 8954.865888,4030.111947 8969.134582,4033.771397 8991.232232,4033.639398 8991.846718,4031.254580 8995.426728,4030.174162 8998.907044,4016.693589 8985.939458,4013.374728 8985.288009,4015.905083 8950.171912,4006.918347 8949.520475,4009.448706 8913.965206,4000.352460 8913.343795,4002.781940 8877.639228,3993.645691 8877.009293,3996.064305 8851.388740,3989.506951"/>
    <poly id="261635039" type="building.yes" color="255,230,230" fill="1" layer="-1.00" shape="8456.647789,3891.001109 8419.481444,3890.311134 8419.240785,3902.854475 8427.865522,3903.007178 8427.812760,3906.042776 8431.096507,3906.104180 8431.064964,3907.872189 8424.398848,3907.752211 8423.453858,3957.680565 8421.198748,3957.634114 8420.988491,3968.942946 8425.868864,3969.036343 8425.789729,3972.872896 8420.917896,3972.790368 8420.561295,3991.327410 8428.955799,3991.486712 8428.929867,3992.876689 8431.209621,3992.922434 8431.196240,3993.889724 8448.684782,3994.221641 8449.091102,3972.826917 8445.758075,3972.766919 8445.815238,3969.597829 8443.025280,3969.544485 8443.097224,3966.030441 8436.883511,3965.908592 8436.949781,3962.483622 8443.154960,3962.594601 8444.182932,3908.385042 8456.313947,3908.615037 8456.647789,3891.001109"/>
    <poly id="261635041" type="natural.water" color="181,209,209" fill="1" layer="-4.00" shape="8443.287724,3848.206936 8417.597503,3848.721531 8411.521938,3849.118088 8409.416326,3846.255543 8409.164752,3822.001197 8412.298065,3813.375870 8415.441371,3812.841149 8429.453749,3821.874888 8441.875013,3830.498620 8447.482710,3837.306177 8447.471385,3844.941723 8443.287724,3848.206936"/>