<?xml version="1.0" encoding="UTF-8"?>
<!-- generated on 2018-11-12 09:43:03.609000 by $Id$ via randomTrips.py
  options: 
-->
<routes xmlns:xsi="http://www.w3.org/2001/XMLSchema-instance" xsi:noNamespaceSchemaLocation="http://sumo.dlr.de/xsd/routes_file.xsd">
    <vType id="veh_passenger" vClass="passenger">
    </vType>


    <vTypeDistribution id="DEFAULT_VEHTYPE">
        <vType probability="0.2" id="truck" guiShape="truck" length="12.0" minGap="2.5" speedFactor="1" speedDev="0.1" maxSpeed= "27.78"  laneChangeModel="SL2015" lcSpeedGain="1000000" lcPushy="1" lcAssertive="20"/> 
        <vType probability="0.8" id="passenger" length="5.0" minGap="2.5" speedFactor="1" speedDev="0.1" laneChangeModel="SL2015" lcSpeedGain="1000000" lcPushy="1" lcAssertive="20"/> 
    </vTypeDistribution>
    <route id="sw2w" edges="404969345#0 404969345#1 456864110 40788302 124433730#0 124433730#1-AddedOnRampEdge 124433730#1 124433730#2-AddedOnRampEdge 124433730#2" />
    <flow id="sw2w1" route="sw2w" begin="0" end="90000" probability="0.8" departSpeed="max" departLane="free" departPos="free"/>
    <route id="se2w" edges="59440544#0 59440544#1 59440544#1-AddedOffRampEdge 22723058#0 22723058#1 491515539 341040160#0 341040160#1 491266613 422314897#0 422314897#1 489256509 456864110 40788302 124433730#0 124433730#1-AddedOnRampEdge 124433730#1 124433730#2-AddedOnRampEdge 124433730#2" />
    <flow id="se2w1" route="se2w" begin="0" end="90000" probability="0.8" departSpeed="max" departLane="free" departPos="free"/>
    <route id="e2w" edges="124433709 422314897#0 422314897#1 489256509 456864110 40788302 124433730#0 124433730#1-AddedOnRampEdge 124433730#1 124433730#2-AddedOnRampEdge 124433730#2" />
    <flow id="e2w1" route="e2w" begin="0" end="90000" probability="0.8" departSpeed="max" departLane="free" departPos="free"/>
    <route id="n2w" edges="38726647 491111706 8666737 40788302 124433730#0 124433730#1-AddedOnRampEdge 124433730#1 124433730#2-AddedOnRampEdge 124433730#2" />
    <flow id="n2w1" route="n2w" begin="0" end="90000" probability="0.8" departSpeed="max" departLane="free" departPos="free"/>


    <trip id="veh2" depart="0.42" departLane="best" from="507207798" to="59440733#1" type="veh_passenger"/>
    <trip id="veh5" depart="1.05" departLane="best" from="-590863725#1" to="311935474#1" type="veh_passenger"/>
    <trip id="veh7" depart="1.47" departLane="best" from="38726626" to="358925954#1" type="veh_passenger"/>
    <trip id="veh8" depart="1.68" departLane="best" from="-59440536#1" to="457361927#1" type="veh_passenger"/>
    <trip id="veh10" depart="2.10" departLane="best" from="8683887#0" to="8670616" type="veh_passenger"/>
    <trip id="veh11" depart="2.31" departLane="best" from="-8684161" to="-8680084#0" type="veh_passenger"/>
    <trip id="veh12" depart="2.52" departLane="best" from="-265333708#1" to="-442583796#0" type="veh_passenger"/>
    <trip id="veh14" depart="2.94" departLane="best" from="8683887#0" to="8674496#4" type="veh_passenger"/>
    <trip id="veh15" depart="3.15" departLane="best" from="-8690883#1" to="364219011" type="veh_passenger"/>
    <trip id="veh18" depart="3.78" departLane="best" from="442573780#0" to="-263444845#0" type="veh_passenger"/>
    <trip id="veh19" depart="3.99" departLane="best" from="-59440536#1" to="-8698258" type="veh_passenger"/>
    <trip id="veh22" depart="4.62" departLane="best" from="351438620#0" to="124433713" type="veh_passenger"/>
    <trip id="veh25" depart="5.25" departLane="best" from="38726626" to="504703541" type="veh_passenger"/>
    <trip id="veh26" depart="5.46" departLane="best" from="-504703541" to="8674496#4" type="veh_passenger"/>
    <trip id="veh27" depart="5.67" departLane="best" from="-495165916#1" to="124433730#2" type="veh_passenger"/>
    <trip id="veh28" depart="5.88" departLane="best" from="8719912" to="544047620" type="veh_passenger"/>
    <trip id="veh29" depart="6.09" departLane="best" from="-8718851" to="59440733#1" type="veh_passenger"/>
    <trip id="veh30" depart="6.30" departLane="best" from="8689819" to="8680084#1" type="veh_passenger"/>
    <trip id="veh32" depart="6.72" departLane="best" from="-8678583#1" to="-8696978#0" type="veh_passenger"/>
    <trip id="veh34" depart="7.14" departLane="best" from="8692187" to="-8702987" type="veh_passenger"/>
    <trip id="veh36" depart="7.56" departLane="best" from="8695616#0" to="265319439#2" type="veh_passenger"/>
    <trip id="veh40" depart="8.40" departLane="best" from="-8692067#3" to="-8690883#0" type="veh_passenger"/>
    <trip id="veh42" depart="8.82" departLane="best" from="-265333708#1" to="-263444845#0" type="veh_passenger"/>
    <trip id="veh45" depart="9.45" departLane="best" from="-264921309" to="22723274#5" type="veh_passenger"/>
    <trip id="veh47" depart="9.87" departLane="best" from="8718440" to="8692067#3" type="veh_passenger"/>
    <trip id="veh49" depart="10.28" departLane="best" from="404969345#0" to="358925954#1" type="veh_passenger"/>
    <trip id="veh52" depart="10.91" departLane="best" from="-8696573#2" to="8711103#2" type="veh_passenger"/>
    <trip id="veh53" depart="11.12" departLane="best" from="8692187" to="-8695616#0" type="veh_passenger"/>
    <trip id="veh55" depart="11.54" departLane="best" from="8695616#0" to="8692301" type="veh_passenger"/>
    <trip id="veh56" depart="11.75" departLane="best" from="-8677147" to="544047620" type="veh_passenger"/>
    <trip id="veh58" depart="12.17" departLane="best" from="8666729" to="358925954#1" type="veh_passenger"/>
    <trip id="veh60" depart="12.59" departLane="best" from="-22723274#5" to="-8707775" type="veh_passenger"/>
    <trip id="veh66" depart="13.85" departLane="best" from="-264921309" to="8678583#1" type="veh_passenger"/>
    <trip id="veh68" depart="14.27" departLane="best" from="-8701974" to="364219011" type="veh_passenger"/>
    <trip id="veh70" depart="14.69" departLane="best" from="-8712345" to="8674496#4" type="veh_passenger"/>
    <trip id="veh71" depart="14.90" departLane="best" from="-544047625#2" to="-8702987" type="veh_passenger"/>
    <trip id="veh75" depart="15.74" departLane="best" from="-8684161" to="457361927#1" type="veh_passenger"/>
    <trip id="veh76" depart="15.95" departLane="best" from="-59440733#1" to="-8690883#0" type="veh_passenger"/>
    <trip id="veh77" depart="16.16" departLane="best" from="-264921309" to="511901571" type="veh_passenger"/>
    <trip id="veh78" depart="16.37" departLane="best" from="-59440536#1" to="8696573#2" type="veh_passenger"/>
    <trip id="veh79" depart="16.58" departLane="best" from="8690883#0" to="-351438620#0" type="veh_passenger"/>
    <trip id="veh80" depart="16.79" departLane="best" from="-59440733#1" to="59440536#1" type="veh_passenger"/>
    <trip id="veh83" depart="17.42" departLane="best" from="-8701974" to="8684161" type="veh_passenger"/>
    <trip id="veh84" depart="17.63" departLane="best" from="8683887#0" to="-8685590#0" type="veh_passenger"/>
    <trip id="veh86" depart="18.05" departLane="best" from="506895599#0" to="59440536#1" type="veh_passenger"/>
    <trip id="veh87" depart="18.26" departLane="best" from="8719912" to="-442583796#0" type="veh_passenger"/>
    <trip id="veh88" depart="18.47" departLane="best" from="-8692067#3" to="-8719912" type="veh_passenger"/>
    <trip id="veh89" depart="18.68" departLane="best" from="8690883#0" to="-8694458#0" type="veh_passenger"/>
    <trip id="veh90" depart="18.89" departLane="best" from="-544047620" to="264921309" type="veh_passenger"/>
    <trip id="veh92" depart="19.31" departLane="best" from="-8665901" to="8703681" type="veh_passenger"/>
    <trip id="veh94" depart="19.73" departLane="best" from="-8718851" to="-263444845#0" type="veh_passenger"/>
    <trip id="veh96" depart="20.15" departLane="best" from="8716159#5" to="8703681" type="veh_passenger"/>
    <trip id="veh98" depart="20.57" departLane="best" from="-8703681" to="-8690883#0" type="veh_passenger"/>
    <trip id="veh99" depart="20.78" departLane="best" from="-8692067#3" to="-264921307#0" type="veh_passenger"/>
    <trip id="veh103" depart="21.62" departLane="best" from="8702987" to="8718851" type="veh_passenger"/>
    <trip id="veh104" depart="21.83" departLane="best" from="-8718851" to="8673220#4" type="veh_passenger"/>
    <trip id="veh105" depart="22.04" departLane="best" from="-358925954#1" to="-8700726#0" type="veh_passenger"/>
    <trip id="veh106" depart="22.25" departLane="best" from="8707775" to="433418936#5" type="veh_passenger"/>
    <trip id="veh108" depart="22.67" departLane="best" from="-264921307#2" to="457361927#1" type="veh_passenger"/>
    <trip id="veh111" depart="23.30" departLane="best" from="-265319439#2" to="-8685590#0" type="veh_passenger"/>
    <trip id="veh113" depart="23.72" departLane="best" from="-59440733#1" to="-544047625#0" type="veh_passenger"/>
    <trip id="veh123" depart="25.82" departLane="best" from="-265319439#2" to="-8690883#0" type="veh_passenger"/>
    <trip id="veh132" depart="27.71" departLane="best" from="-351438615#1" to="-507207798" type="veh_passenger"/>
    <trip id="veh134" depart="28.13" departLane="best" from="-8673220#4" to="504703541" type="veh_passenger"/>
    <trip id="veh136" depart="28.55" departLane="best" from="351438620#0" to="-8695616#0" type="veh_passenger"/>
    <trip id="veh137" depart="28.76" departLane="best" from="-8703967#1" to="8696573#2" type="veh_passenger"/>
    <trip id="veh140" depart="29.39" departLane="best" from="-22723274#5" to="8680084#1" type="veh_passenger"/>
    <trip id="veh141" depart="29.60" departLane="best" from="351438620#0" to="-8695616#0" type="veh_passenger"/>
    <trip id="veh142" depart="29.81" departLane="best" from="544047625#0" to="364219011" type="veh_passenger"/>
    <trip id="veh145" depart="30.44" departLane="best" from="8694458#0" to="358925954#1" type="veh_passenger"/>
    <trip id="veh146" depart="30.64" departLane="best" from="8689819" to="457361927#1" type="veh_passenger"/>
    <trip id="veh147" depart="30.85" departLane="best" from="-358925954#1" to="-544047625#0" type="veh_passenger"/>
    <trip id="veh149" depart="31.27" departLane="best" from="8679461" to="8692067#3" type="veh_passenger"/>
    <trip id="veh151" depart="31.69" departLane="best" from="-8665901" to="-442583796#0" type="veh_passenger"/>
    <trip id="veh154" depart="32.32" departLane="best" from="-358925954#1" to="8703967#1" type="veh_passenger"/>
    <trip id="veh155" depart="32.53" departLane="best" from="8690883#0" to="8712345" type="veh_passenger"/>
    <trip id="veh158" depart="33.16" departLane="best" from="-8680084#1" to="8703967#1" type="veh_passenger"/>
    <trip id="veh159" depart="33.37" departLane="best" from="8679461" to="8692301" type="veh_passenger"/>
    <trip id="veh160" depart="33.58" departLane="best" from="8683887#0" to="-8696978#0" type="veh_passenger"/>
    <trip id="veh167" depart="35.05" departLane="best" from="-8680084#1" to="8692301" type="veh_passenger"/>
    <trip id="veh168" depart="35.26" departLane="best" from="8707775" to="-8697262#0" type="veh_passenger"/>
    <trip id="veh170" depart="35.68" departLane="best" from="8719912" to="351438620#2" type="veh_passenger"/>
    <trip id="veh171" depart="35.89" departLane="best" from="8698258" to="-507207798" type="veh_passenger"/>
    <trip id="veh173" depart="36.31" departLane="best" from="8707775" to="-8696978#0" type="veh_passenger"/>
    <trip id="veh175" depart="36.73" departLane="best" from="493615834" to="-8702987" type="veh_passenger"/>
    <trip id="veh179" depart="37.57" departLane="best" from="-22723274#5" to="8703681" type="veh_passenger"/>
    <trip id="veh180" depart="37.78" departLane="best" from="-8712345" to="8673220#4" type="veh_passenger"/>
    <trip id="veh181" depart="37.99" departLane="best" from="544047625#0" to="59440536#1" type="veh_passenger"/>
    <trip id="veh183" depart="38.41" departLane="best" from="38726647" to="-8718440" type="veh_passenger"/>
    <trip id="veh184" depart="38.62" departLane="best" from="-8678583#1" to="8691996" type="veh_passenger"/>
    <trip id="veh185" depart="38.83" departLane="best" from="493615834" to="-8700726#0" type="veh_passenger"/>
    <trip id="veh187" depart="39.25" departLane="best" from="-8692067#3" to="-8698258" type="veh_passenger"/>
    <trip id="veh189" depart="39.67" departLane="best" from="8698258" to="59440733#1" type="veh_passenger"/>
    <trip id="veh191" depart="40.09" departLane="best" from="-8677147" to="364219011" type="veh_passenger"/>
    <trip id="veh192" depart="40.30" departLane="best" from="-22723274#5" to="-8698258" type="veh_passenger"/>
    <trip id="veh193" depart="40.51" departLane="best" from="-8693621#4" to="446193071#1" type="veh_passenger"/>
    <trip id="veh194" depart="40.72" departLane="best" from="38726647" to="265333708#1" type="veh_passenger"/>
    <trip id="veh196" depart="41.14" departLane="best" from="-8701974" to="8696573#2" type="veh_passenger"/>
    <trip id="veh197" depart="41.35" departLane="best" from="8679461" to="-8683887#0" type="veh_passenger"/>
    <trip id="veh198" depart="41.56" departLane="best" from="-265333708#1" to="342308091" type="veh_passenger"/>
    <trip id="veh199" depart="41.77" departLane="best" from="264921307#0" to="-8718440" type="veh_passenger"/>
    <trip id="veh205" depart="43.03" departLane="best" from="-8692301" to="511901571" type="veh_passenger"/>
    <trip id="veh206" depart="43.24" departLane="best" from="-544047620" to="8665901" type="veh_passenger"/>
    <trip id="veh207" depart="43.45" departLane="best" from="-8703967#1" to="-8694458#0" type="veh_passenger"/>
    <trip id="veh209" depart="43.87" departLane="best" from="59440544#0" to="8680084#1" type="veh_passenger"/>
    <trip id="veh210" depart="44.08" departLane="best" from="-504703541" to="8711103#2" type="veh_passenger"/>
    <trip id="veh211" depart="44.29" departLane="best" from="-8711103#2" to="-263444845#0" type="veh_passenger"/>
    <trip id="veh212" depart="44.50" departLane="best" from="-8665901" to="8691996" type="veh_passenger"/>
    <trip id="veh213" depart="44.71" departLane="best" from="-8696573#2" to="8687734#2" type="veh_passenger"/>
    <trip id="veh218" depart="45.76" departLane="best" from="8685590#0" to="364219011" type="veh_passenger"/>
    <trip id="veh219" depart="45.97" departLane="best" from="8694458#0" to="8677147" type="veh_passenger"/>
    <trip id="veh220" depart="46.18" departLane="best" from="-8701974" to="-8695616#0" type="veh_passenger"/>
    <trip id="veh221" depart="46.39" departLane="best" from="-8665901" to="544047620" type="veh_passenger"/>
    <trip id="veh222" depart="46.60" departLane="best" from="8666729" to="350933458#2" type="veh_passenger"/>
    <trip id="veh223" depart="46.81" departLane="best" from="264921307#0" to="-8696978#0" type="veh_passenger"/>
    <trip id="veh224" depart="47.02" departLane="best" from="-265319439#2" to="-8698258" type="veh_passenger"/>
    <trip id="veh225" depart="47.23" departLane="best" from="-8673220#4" to="-8707775" type="veh_passenger"/>
    <trip id="veh227" depart="47.65" departLane="best" from="-59440733#1" to="8665901" type="veh_passenger"/>
    <trip id="veh228" depart="47.86" departLane="best" from="442573780#0" to="-351438620#0" type="veh_passenger"/>
    <trip id="veh229" depart="48.07" departLane="best" from="-8692301" to="358925954#1" type="veh_passenger"/>
    <trip id="veh232" depart="48.70" departLane="best" from="8690883#0" to="8678583#1" type="veh_passenger"/>
    <trip id="veh238" depart="49.96" departLane="best" from="-59440536#1" to="-8690883#0" type="veh_passenger"/>
    <trip id="veh240" depart="50.38" departLane="best" from="-8684161" to="59440733#1" type="veh_passenger"/>
    <trip id="veh241" depart="50.59" departLane="best" from="-8692067#3" to="-8683887#0" type="veh_passenger"/>
    <trip id="veh244" depart="51.21" departLane="best" from="-8691996" to="38744113" type="veh_passenger"/>
    <trip id="veh246" depart="51.63" departLane="best" from="-351438620#2" to="265319439#2" type="veh_passenger"/>
    <trip id="veh248" depart="52.05" departLane="best" from="-590863725#1" to="-8707775" type="veh_passenger"/>
    <trip id="veh249" depart="52.26" departLane="best" from="8666729" to="124433730#2" type="veh_passenger"/>
    <trip id="veh250" depart="52.47" departLane="best" from="59440544#0" to="8689181" type="veh_passenger"/>
    <trip id="veh251" depart="52.68" departLane="best" from="-8670616" to="-422039808#0" type="veh_passenger"/>
    <trip id="veh253" depart="53.10" departLane="best" from="38726626" to="8684161" type="veh_passenger"/>
    <trip id="veh255" depart="53.52" departLane="best" from="8702987" to="-8689819" type="veh_passenger"/>
    <trip id="veh257" depart="53.94" departLane="best" from="-350933458#2" to="59440536#1" type="veh_passenger"/>
    <trip id="veh259" depart="54.36" departLane="best" from="442573780#0" to="8678583#1" type="veh_passenger"/>
    <trip id="veh260" depart="54.57" departLane="best" from="544047625#0" to="-507207798" type="veh_passenger"/>
    <trip id="veh263" depart="55.20" departLane="best" from="-8678583#1" to="59440733#1" type="veh_passenger"/>
    <trip id="veh265" depart="55.62" departLane="best" from="442583796#0" to="-422039808#0" type="veh_passenger"/>
    <trip id="veh266" depart="55.83" departLane="best" from="422039808#0" to="511901571" type="veh_passenger"/>
    <trip id="veh271" depart="56.88" departLane="best" from="-8693621#4" to="124433730#2" type="veh_passenger"/>
    <trip id="veh276" depart="57.93" departLane="best" from="442573780#0" to="264921307#2" type="veh_passenger"/>
    <trip id="veh280" depart="58.77" departLane="best" from="-8693621#4" to="8674496#4" type="veh_passenger"/>
    <trip id="veh282" depart="59.19" departLane="best" from="8685590#0" to="-442573780#0" type="veh_passenger"/>
    <trip id="veh283" depart="59.40" departLane="best" from="8692187" to="-8694458#0" type="veh_passenger"/>
    <trip id="veh287" depart="60.24" departLane="best" from="-590863725#1" to="8686201#4" type="veh_passenger"/>
    <trip id="veh289" depart="60.66" departLane="best" from="442573780#0" to="-8697262#0" type="veh_passenger"/>
    <trip id="veh290" depart="60.87" departLane="best" from="-22723274#5" to="8711103#2" type="veh_passenger"/>
    <trip id="veh291" depart="61.08" departLane="best" from="-265333708#1" to="8673220#4" type="veh_passenger"/>
    <trip id="veh293" depart="61.50" departLane="best" from="422039808#0" to="544047625#2" type="veh_passenger"/>
    <trip id="veh294" depart="61.71" departLane="best" from="-8703967#1" to="8686201#4" type="veh_passenger"/>
    <trip id="veh295" depart="61.92" departLane="best" from="-286521194#2" to="-8690883#0" type="veh_passenger"/>
    <trip id="veh296" depart="62.13" departLane="best" from="422039808#0" to="-8700726#0" type="veh_passenger"/>
    <trip id="veh299" depart="62.76" departLane="best" from="544047625#0" to="-8718440" type="veh_passenger"/>
    <trip id="veh300" depart="62.97" departLane="best" from="442573780#0" to="-8696978#0" type="veh_passenger"/>
    <trip id="veh301" depart="63.18" departLane="best" from="-8670616" to="-544047625#0" type="veh_passenger"/>
    <trip id="veh302" depart="63.39" departLane="best" from="-8712345" to="8678583#1" type="veh_passenger"/>
    <trip id="veh304" depart="63.81" departLane="best" from="8718440" to="350933458#2" type="veh_passenger"/>
    <trip id="veh305" depart="64.02" departLane="best" from="-8674496#4" to="-442583796#0" type="veh_passenger"/>
    <trip id="veh308" depart="64.65" departLane="best" from="-8712345" to="-8696978#0" type="veh_passenger"/>
    <trip id="veh309" depart="64.86" departLane="best" from="8718440" to="364219011" type="veh_passenger"/>
    <trip id="veh310" depart="65.07" departLane="best" from="442573780#0" to="-544047625#0" type="veh_passenger"/>
    <trip id="veh313" depart="65.70" departLane="best" from="-8701974" to="264921307#2" type="veh_passenger"/>
    <trip id="veh317" depart="66.54" departLane="best" from="-265319439#2" to="511901571" type="veh_passenger"/>
    <trip id="veh321" depart="67.38" departLane="best" from="8666729" to="504703541" type="veh_passenger"/>
    <trip id="veh326" depart="68.43" departLane="best" from="263444845#0" to="504703541" type="veh_passenger"/>
    <trip id="veh329" depart="69.06" departLane="best" from="38726647" to="-8680084#0" type="veh_passenger"/>
    <trip id="veh330" depart="69.27" departLane="best" from="-504703541" to="-422039808#0" type="veh_passenger"/>
    <trip id="veh331" depart="69.48" departLane="best" from="-22723274#5" to="264921309" type="veh_passenger"/>
    <trip id="veh334" depart="70.11" departLane="best" from="442573780#0" to="265319439#2" type="veh_passenger"/>
    <trip id="veh335" depart="70.32" departLane="best" from="422039808#0" to="8703681" type="veh_passenger"/>
    <trip id="veh337" depart="70.74" departLane="best" from="38726647" to="8703967#1" type="veh_passenger"/>
    <trip id="veh340" depart="71.37" departLane="best" from="8685590#0" to="-351438620#0" type="veh_passenger"/>
    <trip id="veh341" depart="71.57" departLane="best" from="-495165916#1" to="-8702987" type="veh_passenger"/>
    <trip id="veh343" depart="71.99" departLane="best" from="-8674496#4" to="-544047625#0" type="veh_passenger"/>
    <trip id="veh344" depart="72.20" departLane="best" from="422039808#0" to="8670616" type="veh_passenger"/>
    <trip id="veh346" depart="72.62" departLane="best" from="-8703967#1" to="-422039808#0" type="veh_passenger"/>
    <trip id="veh348" depart="73.04" departLane="best" from="-8680084#1" to="-8694458#0" type="veh_passenger"/>
    <trip id="veh351" depart="73.67" departLane="best" from="8702987" to="8718851" type="veh_passenger"/>
    <trip id="veh354" depart="74.30" departLane="best" from="-8701974" to="544047625#2" type="veh_passenger"/>
    <trip id="veh355" depart="74.51" departLane="best" from="8695616#0" to="-8685590#0" type="veh_passenger"/>
    <trip id="veh357" depart="74.93" departLane="best" from="-8703967#1" to="-442573780#0" type="veh_passenger"/>
    <trip id="veh358" depart="75.14" departLane="best" from="-8686201#4" to="-8718440" type="veh_passenger"/>
    <trip id="veh360" depart="75.56" departLane="best" from="-8680084#1" to="8665901" type="veh_passenger"/>
    <trip id="veh363" depart="76.19" departLane="best" from="-8696573#2" to="-8702987" type="veh_passenger"/>
    <trip id="veh364" depart="76.40" departLane="best" from="-8680084#1" to="8712345" type="veh_passenger"/>
    <trip id="veh365" depart="76.61" departLane="best" from="-8692067#3" to="342308091" type="veh_passenger"/>
    <trip id="veh366" depart="76.82" departLane="best" from="8719912" to="590863725#1" type="veh_passenger"/>
    <trip id="veh369" depart="77.45" departLane="best" from="59440544#0" to="511901571" type="veh_passenger"/>
    <trip id="veh374" depart="78.50" departLane="best" from="261635032#0" to="-8693186#0" type="veh_passenger"/>
    <trip id="veh375" depart="78.71" departLane="best" from="-495165916#1" to="364219011" type="veh_passenger"/>
    <trip id="veh376" depart="78.92" departLane="best" from="-8718851" to="-442573780#0" type="veh_passenger"/>
    <trip id="veh380" depart="79.76" departLane="best" from="442583796#0" to="342308091" type="veh_passenger"/>
    <trip id="veh381" depart="79.97" departLane="best" from="-8673220#4" to="8690883#1" type="veh_passenger"/>
    <trip id="veh382" depart="80.18" departLane="best" from="8719912" to="-8694458#0" type="veh_passenger"/>
    <trip id="veh383" depart="80.39" departLane="best" from="-8718851" to="22723274#5" type="veh_passenger"/>
    <trip id="veh384" depart="80.60" departLane="best" from="8696978#0" to="342308091" type="veh_passenger"/>
    <trip id="veh385" depart="80.81" departLane="best" from="8692187" to="8692301" type="veh_passenger"/>
    <trip id="veh386" depart="81.02" departLane="best" from="-8673220#4" to="8684161" type="veh_passenger"/>
    <trip id="veh387" depart="81.23" departLane="best" from="-8692301" to="8703967#1" type="veh_passenger"/>
    <trip id="veh388" depart="81.44" departLane="best" from="-8704185#1" to="8688157" type="veh_passenger"/>
    <trip id="veh389" depart="81.65" departLane="best" from="-8674496#4" to="-8700726#0" type="veh_passenger"/>
    <trip id="veh391" depart="82.07" departLane="best" from="-8703967#1" to="-8679461" type="veh_passenger"/>
    <trip id="veh392" depart="82.28" departLane="best" from="-8712345" to="-8719912" type="veh_passenger"/>
    <trip id="veh393" depart="82.49" departLane="best" from="-8718851" to="358925954#1" type="veh_passenger"/>
    <trip id="veh394" depart="82.70" departLane="best" from="-8696573#2" to="-8707775" type="veh_passenger"/>
    <trip id="veh395" depart="82.91" departLane="best" from="-544047620" to="8670616" type="veh_passenger"/>
    <trip id="veh398" depart="83.54" departLane="best" from="544047625#0" to="8670616" type="veh_passenger"/>
    <trip id="veh399" depart="83.75" departLane="best" from="8683887#0" to="22723274#5" type="veh_passenger"/>
    <trip id="veh407" depart="85.43" departLane="best" from="38726647" to="-8680084#0" type="veh_passenger"/>
    <trip id="veh408" depart="85.64" departLane="best" from="-8701974" to="8712345" type="veh_passenger"/>
    <trip id="veh409" depart="85.85" departLane="best" from="-8684161" to="8665901" type="veh_passenger"/>
    <trip id="veh410" depart="86.06" departLane="best" from="38726626" to="8691996" type="veh_passenger"/>
    <trip id="veh412" depart="86.48" departLane="best" from="-8690883#1" to="-8702987" type="veh_passenger"/>
    <trip id="veh413" depart="86.69" departLane="best" from="493615834" to="8678583#1" type="veh_passenger"/>
    <trip id="veh415" depart="87.11" departLane="best" from="-264921309" to="511901571" type="veh_passenger"/>
    <trip id="veh416" depart="87.32" departLane="best" from="8696978#0" to="8718851" type="veh_passenger"/>
    <trip id="veh417" depart="87.53" departLane="best" from="544047625#0" to="264921307#2" type="veh_passenger"/>
    <trip id="veh420" depart="88.16" departLane="best" from="422039808#0" to="8696573#2" type="veh_passenger"/>
    <trip id="veh422" depart="88.58" departLane="best" from="-8677147" to="124433730#2" type="veh_passenger"/>
    <trip id="veh423" depart="88.79" departLane="best" from="-358925954#1" to="351438620#2" type="veh_passenger"/>
    <trip id="veh425" depart="89.21" departLane="best" from="-504703541" to="-422039808#0" type="veh_passenger"/>
    <trip id="veh428" depart="89.84" departLane="best" from="-351438620#2" to="265319439#2" type="veh_passenger"/>
    <trip id="veh429" depart="90.05" departLane="best" from="-8670616" to="-8695616#0" type="veh_passenger"/>
    <trip id="veh430" depart="90.26" departLane="best" from="-22723274#5" to="8687734#2" type="veh_passenger"/>
    <trip id="veh431" depart="90.47" departLane="best" from="8694458#0" to="59440733#1" type="veh_passenger"/>
    <trip id="veh432" depart="90.68" departLane="best" from="-495165916#1" to="264921307#2" type="veh_passenger"/>
    <trip id="veh433" depart="90.89" departLane="best" from="-8686201#4" to="457361927#1" type="veh_passenger"/>
    <trip id="veh435" depart="91.31" departLane="best" from="-8670616" to="8691996" type="veh_passenger"/>
    <trip id="veh436" depart="91.52" departLane="best" from="-544047625#2" to="22723274#5" type="veh_passenger"/>
    <trip id="veh440" depart="92.35" departLane="best" from="8718440" to="590863725#1" type="veh_passenger"/>
    <trip id="veh441" depart="92.56" departLane="best" from="-8673220#4" to="38744113" type="veh_passenger"/>
    <trip id="veh442" depart="92.77" departLane="best" from="422039808#0" to="8677147" type="veh_passenger"/>
    <trip id="veh444" depart="93.19" departLane="best" from="-8703967#1" to="8696573#2" type="veh_passenger"/>
    <trip id="veh445" depart="93.40" departLane="best" from="-8674496#4" to="8686201#4" type="veh_passenger"/>
    <trip id="veh448" depart="94.03" departLane="best" from="404969345#0" to="8673220#4" type="veh_passenger"/>
    <trip id="veh449" depart="94.24" departLane="best" from="38726647" to="8690883#1" type="veh_passenger"/>
    <trip id="veh450" depart="94.45" departLane="best" from="264921307#0" to="8696573#2" type="veh_passenger"/>
    <trip id="veh451" depart="94.66" departLane="best" from="38726626" to="-8702987" type="veh_passenger"/>
    <trip id="veh452" depart="94.87" departLane="best" from="-8694561#3" to="441147563#16" type="veh_passenger"/>
    <trip id="veh453" depart="95.08" departLane="best" from="507207798" to="-442573780#0" type="veh_passenger"/>
    <trip id="veh456" depart="95.71" departLane="best" from="8685590#0" to="-8695616#0" type="veh_passenger"/>
    <trip id="veh458" depart="96.13" departLane="best" from="8683887#0" to="8677147" type="veh_passenger"/>
    <trip id="veh459" depart="96.34" departLane="best" from="-8684161" to="-507207798" type="veh_passenger"/>
    <trip id="veh460" depart="96.55" departLane="best" from="8707775" to="-8679461" type="veh_passenger"/>
    <trip id="veh461" depart="96.76" departLane="best" from="8707775" to="8692067#3" type="veh_passenger"/>
    <trip id="veh463" depart="97.18" departLane="best" from="8707775" to="8687734#2" type="veh_passenger"/>
    <trip id="veh466" depart="97.81" departLane="best" from="-8696573#2" to="59440536#1" type="veh_passenger"/>
    <trip id="veh471" depart="98.86" departLane="best" from="-59440536#1" to="-351438620#0" type="veh_passenger"/>
    <trip id="veh477" depart="100.12" departLane="best" from="-351438620#2" to="265319439#2" type="veh_passenger"/>
    <trip id="veh480" depart="100.75" departLane="best" from="544047625#0" to="-8680084#0" type="veh_passenger"/>